1.0-dev1

WRF boundary condition couplers for GEOS-Chem and TM5/CarbonTracker
Autotools build system